<?xml version="1.0" encoding="UTF-8"?>

<!-- generated on 2023-08-07 12:15:29 by Eclipse SUMO netedit Version 1.17.0
<configuration xmlns:xsi="http://www.w3.org/2001/XMLSchema-instance" xsi:noNamespaceSchemaLocation="http://sumo.dlr.de/xsd/netconvertConfiguration.xsd">

    <input>
        <sumo-net-file value="C:\Users\nz45jg\OneDrive - General Motors\Projects\congestion\sumo_berkley_db\reduced_size_simulation_v2\new_final_net.net.xml"/>
    </input>

    <output>
        <output-file value="C:\Users\nz45jg\OneDrive - General Motors\Projects\congestion\sumo_berkley_db\reduced_size_simulation_v2\new_final_net.net.xml"/>
    </output>

    <processing>
        <geometry.min-radius.fix.railways value="false"/>
        <geometry.max-grade.fix value="false"/>
        <offset.disable-normalization value="true"/>
        <lefthand value="0"/>
    </processing>

    <junctions>
        <no-turnarounds value="true"/>
        <junctions.corner-detail value="5"/>
        <junctions.limit-turn-speed value="5.50"/>
        <rectangular-lane-cut value="0"/>
    </junctions>

    <pedestrian>
        <walkingareas value="0"/>
    </pedestrian>

</configuration>
-->

<net version="1.16" junctionCornerDetail="5" limitTurnSpeed="5.50" xmlns:xsi="http://www.w3.org/2001/XMLSchema-instance" xsi:noNamespaceSchemaLocation="http://sumo.dlr.de/xsd/net_file.xsd">

    <location netOffset="-527148.46,-3980464.49" convBoundary="498.12,-68.46,12129.48,11774.00" origBoundary="-86.698461,35.967806,-86.564320,36.083289" projParameter="+proj=utm +zone=16 +ellps=WGS84 +datum=WGS84 +units=m +no_defs"/>

    <type id="highway.bridleway" priority="1" numLanes="1" speed="2.78" allow="pedestrian" oneway="1" width="2.00"/>
    <type id="highway.bus_guideway" priority="1" numLanes="1" speed="27.78" allow="bus" oneway="1"/>
    <type id="highway.cycleway" priority="1" numLanes="1" speed="8.33" allow="bicycle" oneway="0" width="1.00"/>
    <type id="highway.footway" priority="1" numLanes="1" speed="2.78" allow="pedestrian" oneway="1" width="2.00"/>
    <type id="highway.ford" priority="1" numLanes="1" speed="2.78" allow="army" oneway="0"/>
    <type id="highway.living_street" priority="2" numLanes="1" speed="2.78" disallow="tram rail_urban rail rail_electric rail_fast ship" oneway="0"/>
    <type id="highway.motorway" priority="14" numLanes="2" speed="39.44" allow="private emergency authority army vip passenger hov taxi bus coach delivery truck trailer motorcycle evehicle custom1 custom2" oneway="1"/>
    <type id="highway.motorway_link" priority="9" numLanes="1" speed="22.22" allow="private emergency authority army vip passenger hov taxi bus coach delivery truck trailer motorcycle evehicle custom1 custom2" oneway="1"/>
    <type id="highway.path" priority="1" numLanes="1" speed="2.78" allow="pedestrian bicycle" oneway="0" width="2.00"/>
    <type id="highway.pedestrian" priority="1" numLanes="1" speed="2.78" allow="pedestrian" oneway="1" width="2.00"/>
    <type id="highway.primary" priority="12" numLanes="2" speed="27.78" disallow="tram rail_urban rail rail_electric rail_fast ship" oneway="0"/>
    <type id="highway.primary_link" priority="7" numLanes="1" speed="22.22" disallow="tram rail_urban rail rail_electric rail_fast ship" oneway="0"/>
    <type id="highway.raceway" priority="15" numLanes="2" speed="83.33" allow="vip" oneway="0"/>
    <type id="highway.residential" priority="3" numLanes="1" speed="13.89" disallow="tram rail_urban rail rail_electric rail_fast ship" oneway="0"/>
    <type id="highway.secondary" priority="11" numLanes="1" speed="27.78" disallow="tram rail_urban rail rail_electric rail_fast ship" oneway="0"/>
    <type id="highway.secondary_link" priority="6" numLanes="1" speed="22.22" disallow="tram rail_urban rail rail_electric rail_fast ship" oneway="0"/>
    <type id="highway.service" priority="1" numLanes="1" speed="5.56" allow="pedestrian delivery bicycle" oneway="0"/>
    <type id="highway.stairs" priority="1" numLanes="1" speed="1.39" allow="pedestrian" oneway="1" width="2.00"/>
    <type id="highway.step" priority="1" numLanes="1" speed="1.39" allow="pedestrian" oneway="1" width="2.00"/>
    <type id="highway.steps" priority="1" numLanes="1" speed="1.39" allow="pedestrian" oneway="1" width="2.00"/>
    <type id="highway.tertiary" priority="10" numLanes="1" speed="22.22" disallow="tram rail_urban rail rail_electric rail_fast ship" oneway="0"/>
    <type id="highway.tertiary_link" priority="5" numLanes="1" speed="22.22" disallow="tram rail_urban rail rail_electric rail_fast ship" oneway="0"/>
    <type id="highway.track" priority="1" numLanes="1" speed="5.56" allow="pedestrian motorcycle moped bicycle" oneway="0"/>
    <type id="highway.trunk" priority="13" numLanes="2" speed="27.78" disallow="pedestrian bicycle tram rail_urban rail rail_electric rail_fast ship" oneway="0"/>
    <type id="highway.trunk_link" priority="8" numLanes="1" speed="22.22" disallow="pedestrian bicycle tram rail_urban rail rail_electric rail_fast ship" oneway="0"/>
    <type id="highway.unclassified" priority="4" numLanes="1" speed="13.89" disallow="tram rail_urban rail rail_electric rail_fast ship" oneway="0"/>
    <type id="highway.unsurfaced" priority="1" numLanes="1" speed="8.33" disallow="tram rail_urban rail rail_electric rail_fast ship" oneway="0"/>
    <type id="railway.highspeed" priority="21" numLanes="1" speed="69.44" allow="rail_fast" oneway="1"/>
    <type id="railway.light_rail" priority="19" numLanes="1" speed="27.78" allow="rail_urban" oneway="1"/>
    <type id="railway.preserved" priority="16" numLanes="1" speed="27.78" allow="rail" oneway="1"/>
    <type id="railway.rail" priority="20" numLanes="1" speed="44.44" allow="rail" oneway="1"/>
    <type id="railway.subway" priority="18" numLanes="1" speed="27.78" allow="rail_urban" oneway="1"/>
    <type id="railway.tram" priority="17" numLanes="1" speed="13.89" allow="tram" oneway="1"/>

    <edge id=":1241354459_0" function="internal">
        <lane id=":1241354459_0_0" index="0" allow="private emergency authority army vip passenger hov taxi bus coach delivery truck trailer motorcycle evehicle custom1 custom2" speed="17.88" length="18.89" shape="11284.07,700.89 11281.88,697.80 11279.50,694.45 11276.25,690.85 11271.42,687.04"/>
    </edge>
    <edge id=":1241354459_1" function="internal">
        <lane id=":1241354459_1_0" index="0" disallow="tram rail_urban rail rail_electric rail_fast ship" speed="17.88" length="18.91" shape="11287.04,697.69 11271.42,687.04"/>
        <lane id=":1241354459_1_1" index="1" disallow="tram rail_urban rail rail_electric rail_fast ship" speed="17.88" length="18.91" shape="11288.84,695.04 11273.20,684.38"/>
    </edge>
    <edge id=":1241354682_0" function="internal">
        <lane id=":1241354682_0_0" index="0" allow="private emergency authority army vip passenger hov taxi bus coach delivery truck trailer motorcycle evehicle custom1 custom2" speed="24.59" length="24.72" shape="4902.28,7463.09 4907.90,7460.05 4912.52,7457.72 4917.08,7454.67 4922.48,7449.45"/>
        <lane id=":1241354682_0_1" index="1" allow="private emergency authority army vip passenger hov taxi bus coach delivery truck trailer motorcycle evehicle custom1 custom2" speed="24.59" length="24.72" shape="4903.94,7465.83 4909.28,7462.38 4913.31,7459.14 4917.29,7455.15 4922.48,7449.45"/>
    </edge>
    <edge id=":1241354682_2" function="internal">
        <lane id=":1241354682_2_0" index="0" allow="private emergency authority army vip passenger hov taxi bus coach delivery truck trailer motorcycle evehicle custom1 custom2" speed="31.29" length="25.29" shape="4906.68,7469.16 4924.85,7451.60"/>
        <lane id=":1241354682_2_1" index="1" allow="private emergency authority army vip passenger hov taxi bus coach delivery truck trailer motorcycle evehicle custom1 custom2" speed="31.29" length="25.29" shape="4909.05,7471.32 4927.23,7453.75"/>
        <lane id=":1241354682_2_2" index="2" allow="private emergency authority army vip passenger hov taxi bus coach delivery truck trailer motorcycle evehicle custom1 custom2" speed="31.29" length="25.29" shape="4911.41,7473.47 4929.60,7455.89"/>
        <lane id=":1241354682_2_3" index="3" allow="private emergency authority army vip passenger hov taxi bus coach delivery truck trailer motorcycle evehicle custom1 custom2" speed="31.29" length="25.29" shape="4913.78,7475.62 4931.97,7458.04"/>
    </edge>
    <edge id=":1241354761_0" function="internal">
        <lane id=":1241354761_0_0" index="0" allow="private emergency authority army vip passenger hov taxi bus coach delivery truck trailer motorcycle evehicle custom1 custom2" speed="17.88" length="8.84" shape="3519.12,8489.47 3527.93,8488.92"/>
    </edge>
    <edge id=":1241354761_1" function="internal">
        <lane id=":1241354761_1_0" index="0" allow="private emergency authority army vip passenger hov taxi bus coach delivery truck trailer motorcycle evehicle custom1 custom2" speed="9.32" length="8.75" shape="3520.77,8493.48 3522.43,8491.60 3524.17,8490.21 3526.01,8489.32 3527.93,8488.92"/>
    </edge>
    <edge id=":1241354864_0" function="internal">
        <lane id=":1241354864_0_0" index="0" allow="private emergency authority army vip passenger hov taxi bus coach delivery truck trailer motorcycle evehicle custom1 custom2" speed="17.88" length="31.28" shape="11849.99,981.69 11841.80,979.87 11832.81,978.44 11824.69,977.37 11819.14,976.66"/>
    </edge>
    <edge id=":1241354864_1" function="internal">
        <lane id=":1241354864_1_0" index="0" disallow="pedestrian bicycle tram rail_urban rail rail_electric rail_fast ship" speed="17.88" length="31.28" shape="11849.99,981.69 11819.92,973.02"/>
        <lane id=":1241354864_1_1" index="1" disallow="pedestrian bicycle tram rail_urban rail rail_electric rail_fast ship" speed="17.88" length="31.28" shape="11850.85,978.61 11820.81,969.94"/>
    </edge>
    <edge id=":1241354914_0" function="internal">
        <lane id=":1241354914_0_0" index="0" allow="private emergency authority army vip passenger hov taxi bus coach delivery truck trailer motorcycle evehicle custom1 custom2" speed="17.88" length="26.81" shape="4453.62,8081.54 4454.62,8089.22 4455.53,8094.47 4456.94,8099.59 4459.43,8106.92"/>
        <lane id=":1241354914_0_1" index="1" allow="private emergency authority army vip passenger hov taxi bus coach delivery truck trailer motorcycle evehicle custom1 custom2" speed="17.88" length="26.81" shape="4450.45,8081.94 4451.47,8089.83 4452.40,8095.20 4453.85,8100.46 4456.41,8107.98"/>
        <lane id=":1241354914_0_2" index="2" allow="private emergency authority army vip passenger hov taxi bus coach delivery truck trailer motorcycle evehicle custom1 custom2" speed="17.88" length="26.81" shape="4447.28,8082.34 4448.32,8090.43 4449.28,8095.94 4450.77,8101.33 4453.39,8109.04"/>
    </edge>
    <edge id=":1241354914_3" function="internal">
        <lane id=":1241354914_3_0" index="0" allow="private emergency authority army vip passenger hov taxi bus coach delivery truck trailer motorcycle evehicle custom1 custom2" speed="17.88" length="26.85" shape="4441.83,8103.85 4459.61,8083.45"/>
        <lane id=":1241354914_3_1" index="1" allow="private emergency authority army vip passenger hov taxi bus coach delivery truck trailer motorcycle evehicle custom1 custom2" speed="17.88" length="26.85" shape="4444.31,8105.87 4461.96,8085.63"/>
        <lane id=":1241354914_3_2" index="2" allow="private emergency authority army vip passenger hov taxi bus coach delivery truck trailer motorcycle evehicle custom1 custom2" speed="17.88" length="26.85" shape="4446.79,8107.89 4464.30,8087.80"/>
    </edge>
    <edge id=":1241355410_0" function="internal">
        <lane id=":1241355410_0_0" index="0" disallow="pedestrian bicycle tram rail_urban rail rail_electric rail_fast ship" speed="17.88" length="8.17" shape="11415.03,784.72 11412.86,783.63 11411.21,783.21 11409.57,782.77 11407.45,781.62"/>
        <lane id=":1241355410_0_1" index="1" disallow="pedestrian bicycle tram rail_urban rail rail_electric rail_fast ship" speed="17.88" length="8.17" shape="11416.76,782.03 11414.62,780.95 11412.98,780.54 11411.35,780.11 11409.25,778.98"/>
        <lane id=":1241355410_0_2" index="2" disallow="pedestrian bicycle tram rail_urban rail rail_electric rail_fast ship" speed="17.88" length="8.17" shape="11416.76,782.03 11414.90,780.54 11413.88,779.21 11412.87,777.87 11411.05,776.33"/>
    </edge>
    <edge id=":1241355485_0" function="internal">
        <lane id=":1241355485_0_0" index="0" disallow="tram rail_urban rail rail_electric rail_fast ship" speed="17.88" length="8.54" shape="9196.25,3077.31 9195.49,3074.92 9194.23,3073.51 9192.97,3072.10 9192.21,3069.71"/>
        <lane id=":1241355485_0_1" index="1" disallow="tram rail_urban rail rail_electric rail_fast ship" speed="17.88" length="8.54" shape="9199.43,3076.97 9198.67,3074.58 9197.41,3073.16 9196.15,3071.75 9195.39,3069.36"/>
        <lane id=":1241355485_0_2" index="2" disallow="tram rail_urban rail rail_electric rail_fast ship" speed="17.88" length="8.54" shape="9199.43,3076.97 9198.57,3069.02"/>
    </edge>
    <edge id=":1241355485_3" function="internal">
        <lane id=":1241355485_3_0" index="0" disallow="tram rail_urban rail rail_electric rail_fast ship" speed="17.88" length="8.61" shape="9208.11,3067.98 9208.88,3070.38 9210.13,3071.79 9211.39,3073.20 9212.15,3075.60"/>
        <lane id=":1241355485_3_1" index="1" disallow="tram rail_urban rail rail_electric rail_fast ship" speed="17.88" length="8.61" shape="9204.93,3068.33 9205.69,3070.72 9206.95,3072.13 9208.21,3073.54 9208.97,3075.94"/>
        <lane id=":1241355485_3_2" index="2" disallow="tram rail_urban rail rail_electric rail_fast ship" speed="17.88" length="8.61" shape="9201.75,3068.67 9202.51,3071.07 9203.77,3072.48 9205.03,3073.89 9205.79,3076.28"/>
        <lane id=":1241355485_3_3" index="3" disallow="tram rail_urban rail rail_electric rail_fast ship" speed="17.88" length="8.61" shape="9201.75,3068.67 9202.61,3076.63"/>
    </edge>
    <edge id=":1241356094_0" function="internal">
        <lane id=":1241356094_0_0" index="0" allow="private emergency authority army vip passenger hov taxi bus coach delivery truck trailer motorcycle evehicle custom1 custom2" speed="24.59" length="16.66" shape="9653.71,2663.51 9656.75,2661.68 9659.81,2659.89 9663.32,2657.64 9667.69,2654.46"/>
    </edge>
    <edge id=":1241356094_1" function="internal">
        <lane id=":1241356094_1_0" index="0" allow="private emergency authority army vip passenger hov taxi bus coach delivery truck trailer motorcycle evehicle custom1 custom2" speed="31.29" length="16.76" shape="9655.63,2666.24 9669.64,2656.99"/>
        <lane id=":1241356094_1_1" index="1" allow="private emergency authority army vip passenger hov taxi bus coach delivery truck trailer motorcycle evehicle custom1 custom2" speed="31.29" length="16.76" shape="9657.60,2668.76 9671.60,2659.53"/>
        <lane id=":1241356094_1_2" index="2" allow="private emergency authority army vip passenger hov taxi bus coach delivery truck trailer motorcycle evehicle custom1 custom2" speed="31.29" length="16.76" shape="9659.57,2671.29 9673.56,2662.06"/>
        <lane id=":1241356094_1_3" index="3" allow="private emergency authority army vip passenger hov taxi bus coach delivery truck trailer motorcycle evehicle custom1 custom2" speed="31.29" length="16.76" shape="9661.53,2673.81 9675.51,2664.59"/>
    </edge>
    <edge id=":1241356401_0" function="internal">
        <lane id=":1241356401_0_0" index="0" allow="private emergency authority army vip passenger hov taxi bus coach delivery truck trailer motorcycle evehicle custom1 custom2" speed="24.59" length="10.43" shape="9293.12,2945.12 9295.50,2943.12 9296.96,2941.53 9298.28,2939.84 9300.19,2937.51"/>
    </edge>
    <edge id=":1241356401_1" function="internal">
        <lane id=":1241356401_1_0" index="0" allow="private emergency authority army vip passenger hov taxi bus coach delivery truck trailer motorcycle evehicle custom1 custom2" speed="31.29" length="10.69" shape="9295.09,2947.65 9297.44,2945.54 9298.82,2943.84 9300.21,2942.14 9302.58,2940.04"/>
        <lane id=":1241356401_1_1" index="1" allow="private emergency authority army vip passenger hov taxi bus coach delivery truck trailer motorcycle evehicle custom1 custom2" speed="31.29" length="10.69" shape="9297.05,2950.18 9299.40,2948.07 9300.78,2946.37 9302.17,2944.68 9304.53,2942.58"/>
        <lane id=":1241356401_1_2" index="2" allow="private emergency authority army vip passenger hov taxi bus coach delivery truck trailer motorcycle evehicle custom1 custom2" speed="31.29" length="10.69" shape="9299.01,2952.70 9301.36,2950.60 9302.74,2948.90 9304.12,2947.21 9306.48,2945.12"/>
        <lane id=":1241356401_1_3" index="3" allow="private emergency authority army vip passenger hov taxi bus coach delivery truck trailer motorcycle evehicle custom1 custom2" speed="31.29" length="10.69" shape="9300.97,2955.23 9303.32,2953.13 9304.70,2951.44 9306.08,2949.75 9308.43,2947.65"/>
    </edge>
    <edge id=":1844867707_0" function="internal">
        <lane id=":1844867707_0_0" index="0" allow="private emergency authority army vip passenger hov taxi bus coach delivery truck trailer motorcycle evehicle custom1 custom2" speed="24.59" length="25.57" shape="11506.97,744.13 11511.26,736.60 11514.30,730.28 11516.48,725.15 11518.22,721.20"/>
    </edge>
    <edge id=":1844867707_1" function="internal">
        <lane id=":1844867707_1_0" index="0" allow="private emergency authority army vip passenger hov taxi bus coach delivery truck trailer motorcycle evehicle custom1 custom2" speed="31.29" length="25.85" shape="11509.68,745.82 11513.46,739.18 11515.60,734.40 11517.65,729.56 11521.16,722.76"/>
        <lane id=":1844867707_1_1" index="1" allow="private emergency authority army vip passenger hov taxi bus coach delivery truck trailer motorcycle evehicle custom1 custom2" speed="31.29" length="25.85" shape="11512.40,747.51 11516.13,740.84 11518.19,736.00 11520.23,731.14 11523.89,724.42"/>
        <lane id=":1844867707_1_2" index="2" allow="private emergency authority army vip passenger hov taxi bus coach delivery truck trailer motorcycle evehicle custom1 custom2" speed="31.29" length="25.85" shape="11515.12,749.21 11518.85,742.52 11520.92,737.67 11522.96,732.81 11526.63,726.08"/>
        <lane id=":1844867707_1_3" index="3" allow="private emergency authority army vip passenger hov taxi bus coach delivery truck trailer motorcycle evehicle custom1 custom2" speed="31.29" length="25.85" shape="11517.83,750.90 11521.58,744.20 11523.65,739.35 11525.69,734.48 11529.36,727.74"/>
    </edge>
    <edge id=":1844867715_0" function="internal">
        <lane id=":1844867715_0_0" index="0" allow="private emergency authority army vip passenger hov taxi bus coach delivery truck trailer motorcycle evehicle custom1 custom2" speed="17.88" length="37.63" shape="11612.38,1002.15 11577.03,1015.05"/>
    </edge>
    <edge id=":1844867715_1" function="internal">
        <lane id=":1844867715_1_0" index="0" allow="private emergency authority army vip passenger hov taxi bus coach delivery truck trailer motorcycle evehicle custom1 custom2" speed="17.88" length="37.65" shape="11611.05,998.94 11604.58,1002.29 11594.19,1007.33 11583.73,1012.19 11577.03,1015.05"/>
    </edge>
    <edge id=":1844867719_0" function="internal">
        <lane id=":1844867719_0_0" index="0" allow="private emergency authority army vip passenger hov taxi bus coach delivery truck trailer motorcycle evehicle custom1 custom2" speed="24.59" length="33.57" shape="11171.60,1221.20 11178.35,1211.80 11183.23,1203.57 11186.63,1197.00 11188.94,1192.54"/>
    </edge>
    <edge id=":1844867719_1" function="internal">
        <lane id=":1844867719_1_0" index="0" allow="private emergency authority army vip passenger hov taxi bus coach delivery truck trailer motorcycle evehicle custom1 custom2" speed="31.29" length="33.56" shape="11171.60,1221.20 11192.03,1194.63"/>
        <lane id=":1844867719_1_1" index="1" allow="private emergency authority army vip passenger hov taxi bus coach delivery truck trailer motorcycle evehicle custom1 custom2" speed="31.29" length="33.56" shape="11174.10,1223.19 11194.56,1196.60"/>
        <lane id=":1844867719_1_2" index="2" allow="private emergency authority army vip passenger hov taxi bus coach delivery truck trailer motorcycle evehicle custom1 custom2" speed="31.29" length="33.56" shape="11176.61,1225.18 11197.08,1198.57"/>
        <lane id=":1844867719_1_3" index="3" allow="private emergency authority army vip passenger hov taxi bus coach delivery truck trailer motorcycle evehicle custom1 custom2" speed="31.29" length="33.56" shape="11179.11,1227.18 11199.60,1200.54"/>
    </edge>
    <edge id=":1844879421_0" function="internal">
        <lane id=":1844879421_0_0" index="0" allow="private emergency authority army vip passenger hov taxi bus coach delivery truck trailer motorcycle evehicle custom1 custom2" speed="24.59" length="23.00" shape="11741.24,318.35 11743.75,315.12 11746.86,311.20 11750.45,306.16 11754.41,299.54"/>
    </edge>
    <edge id=":1844879421_1" function="internal">
        <lane id=":1844879421_1_0" index="0" allow="private emergency authority army vip passenger hov taxi bus coach delivery truck trailer motorcycle evehicle custom1 custom2" speed="31.29" length="23.26" shape="11744.08,320.15 11747.74,314.33 11750.69,310.63 11753.63,306.92 11757.22,301.07"/>
        <lane id=":1844879421_1_1" index="1" allow="private emergency authority army vip passenger hov taxi bus coach delivery truck trailer motorcycle evehicle custom1 custom2" speed="31.29" length="23.26" shape="11746.87,321.71 11750.54,315.88 11753.50,312.18 11756.43,308.46 11760.03,302.60"/>
        <lane id=":1844879421_1_2" index="2" allow="private emergency authority army vip passenger hov taxi bus coach delivery truck trailer motorcycle evehicle custom1 custom2" speed="31.29" length="23.26" shape="11749.67,323.27 11753.34,317.43 11756.30,313.72 11759.24,310.00 11762.84,304.13"/>
        <lane id=":1844879421_1_3" index="3" allow="private emergency authority army vip passenger hov taxi bus coach delivery truck trailer motorcycle evehicle custom1 custom2" speed="31.29" length="23.26" shape="11752.46,324.83 11756.13,318.99 11759.10,315.27 11762.05,311.54 11765.66,305.65"/>
    </edge>
    <edge id=":1844879425_0" function="internal">
        <lane id=":1844879425_0_0" index="0" allow="private emergency authority army vip passenger hov taxi bus coach delivery truck trailer motorcycle evehicle custom1 custom2" speed="31.29" length="8.17" shape="11358.13,976.10 11359.29,974.05 11359.74,972.45 11360.19,970.85 11361.30,968.76"/>
        <lane id=":1844879425_0_1" index="1" allow="private emergency authority army vip passenger hov taxi bus coach delivery truck trailer motorcycle evehicle custom1 custom2" speed="31.29" length="8.17" shape="11358.13,976.10 11359.71,974.33 11361.07,973.35 11362.41,972.37 11363.95,970.56"/>
        <lane id=":1844879425_0_2" index="2" allow="private emergency authority army vip passenger hov taxi bus coach delivery truck trailer motorcycle evehicle custom1 custom2" speed="31.29" length="8.17" shape="11360.73,977.97 11362.32,976.17 11363.69,975.19 11365.05,974.19 11366.59,972.37"/>
        <lane id=":1844879425_0_3" index="3" allow="private emergency authority army vip passenger hov taxi bus coach delivery truck trailer motorcycle evehicle custom1 custom2" speed="31.29" length="8.17" shape="11363.33,979.83 11364.93,978.02 11366.31,977.02 11367.68,976.01 11369.24,974.17"/>
        <lane id=":1844879425_0_4" index="4" allow="private emergency authority army vip passenger hov taxi bus coach delivery truck trailer motorcycle evehicle custom1 custom2" speed="31.29" length="8.17" shape="11365.93,981.70 11367.55,979.86 11368.94,978.85 11370.31,977.83 11371.88,975.97"/>
    </edge>
    <edge id=":1844879476_0" function="internal">
        <lane id=":1844879476_0_0" index="0" allow="private emergency authority army vip passenger hov taxi bus coach delivery truck trailer motorcycle evehicle custom1 custom2" speed="31.29" length="8.21" shape="8360.62,3736.60 8359.09,3738.43 8358.35,3739.92 8357.61,3741.43 8356.11,3743.28"/>
        <lane id=":1844879476_0_1" index="1" allow="private emergency authority army vip passenger hov taxi bus coach delivery truck trailer motorcycle evehicle custom1 custom2" speed="31.29" length="8.21" shape="8358.40,3734.30 8356.86,3736.14 8356.10,3737.64 8355.36,3739.16 8353.85,3741.03"/>
        <lane id=":1844879476_0_2" index="2" allow="private emergency authority army vip passenger hov taxi bus coach delivery truck trailer motorcycle evehicle custom1 custom2" speed="31.29" length="8.21" shape="8356.18,3732.00 8354.63,3733.85 8353.86,3735.36 8353.10,3736.88 8351.58,3738.77"/>
        <lane id=":1844879476_0_3" index="3" allow="private emergency authority army vip passenger hov taxi bus coach delivery truck trailer motorcycle evehicle custom1 custom2" speed="31.29" length="8.21" shape="8353.96,3729.69 8352.39,3731.55 8351.62,3733.08 8350.85,3734.61 8349.31,3736.51"/>
    </edge>
    <edge id=":1913883940_0" function="internal">
        <lane id=":1913883940_0_0" index="0" allow="private emergency authority army vip passenger hov taxi bus coach delivery truck trailer motorcycle evehicle custom1 custom2" speed="24.59" length="54.31" shape="7393.46,4736.27 7429.90,4696.00"/>
    </edge>
    <edge id=":1913883940_1" function="internal">
        <lane id=":1913883940_1_0" index="0" allow="private emergency authority army vip passenger hov taxi bus coach delivery truck trailer motorcycle evehicle custom1 custom2" speed="31.29" length="54.18" shape="7395.73,4738.59 7432.19,4698.24"/>
        <lane id=":1913883940_1_1" index="1" allow="private emergency authority army vip passenger hov taxi bus coach delivery truck trailer motorcycle evehicle custom1 custom2" speed="31.29" length="54.18" shape="7398.10,4740.73 7434.48,4700.48"/>
        <lane id=":1913883940_1_2" index="2" allow="private emergency authority army vip passenger hov taxi bus coach delivery truck trailer motorcycle evehicle custom1 custom2" speed="31.29" length="54.18" shape="7400.48,4742.87 7436.76,4702.72"/>
        <lane id=":1913883940_1_3" index="3" allow="private emergency authority army vip passenger hov taxi bus coach delivery truck trailer motorcycle evehicle custom1 custom2" speed="31.29" length="54.18" shape="7402.86,4745.01 7439.05,4704.95"/>
    </edge>
    <edge id=":1913883944_0" function="internal">
        <lane id=":1913883944_0_0" index="0" allow="private emergency authority army vip passenger hov taxi bus coach delivery truck trailer motorcycle evehicle custom1 custom2" speed="24.59" length="44.19" shape="7254.95,4942.44 7245.45,4953.56 7237.50,4963.93 7231.51,4972.29 7227.90,4977.35"/>
    </edge>
    <edge id=":1913883944_1" function="internal">
        <lane id=":1913883944_1_0" index="0" allow="private emergency authority army vip passenger hov taxi bus coach delivery truck trailer motorcycle evehicle custom1 custom2" speed="31.29" length="44.18" shape="7254.95,4942.44 7225.17,4975.07"/>
        <lane id=":1913883944_1_1" index="1" allow="private emergency authority army vip passenger hov taxi bus coach delivery truck trailer motorcycle evehicle custom1 custom2" speed="31.29" length="44.18" shape="7252.59,4940.28 7222.81,4972.91"/>
        <lane id=":1913883944_1_2" index="2" allow="private emergency authority army vip passenger hov taxi bus coach delivery truck trailer motorcycle evehicle custom1 custom2" speed="31.29" length="44.18" shape="7250.23,4938.12 7220.45,4970.75"/>
        <lane id=":1913883944_1_3" index="3" allow="private emergency authority army vip passenger hov taxi bus coach delivery truck trailer motorcycle evehicle custom1 custom2" speed="31.29" length="44.18" shape="7247.87,4935.96 7218.09,4968.59"/>
    </edge>
    <edge id=":1913883946_0" function="internal">
        <lane id=":1913883946_0_0" index="0" disallow="tram rail_urban rail rail_electric rail_fast ship" speed="17.88" length="20.90" shape="7018.52,4992.50 7014.63,4971.97"/>
        <lane id=":1913883946_0_1" index="1" disallow="tram rail_urban rail rail_electric rail_fast ship" speed="17.88" length="20.90" shape="7021.67,4991.90 7017.78,4971.37"/>
    </edge>
    <edge id=":1913883946_2" function="internal">
        <lane id=":1913883946_2_0" index="0" allow="private emergency authority army vip passenger hov taxi bus coach delivery truck trailer motorcycle evehicle custom1 custom2" speed="17.88" length="20.92" shape="7024.07,4970.18 7025.73,4976.73 7027.76,4981.87 7029.93,4985.97 7032.02,4989.38"/>
    </edge>
    <edge id=":1913883946_3" function="internal">
        <lane id=":1913883946_3_0" index="0" disallow="tram rail_urban rail rail_electric rail_fast ship" speed="17.88" length="20.90" shape="7024.07,4970.18 7027.96,4990.71"/>
        <lane id=":1913883946_3_1" index="1" disallow="tram rail_urban rail rail_electric rail_fast ship" speed="17.88" length="20.90" shape="7020.92,4970.78 7024.81,4991.31"/>
    </edge>
    <edge id=":1913883961_0" function="internal">
        <lane id=":1913883961_0_0" index="0" allow="private emergency authority army vip passenger hov taxi bus coach delivery truck trailer motorcycle evehicle custom1 custom2" speed="17.88" length="16.45" shape="7075.14,5014.39 7079.13,5014.17 7083.36,5013.67 7087.52,5012.82 7091.26,5011.54"/>
    </edge>
    <edge id=":1913883961_1" function="internal">
        <lane id=":1913883961_1_0" index="0" allow="private emergency authority army vip passenger hov taxi bus coach delivery truck trailer motorcycle evehicle custom1 custom2" speed="17.88" length="16.33" shape="7076.26,5018.00 7091.26,5011.54"/>
    </edge>
    <edge id=":1913883984_0" function="internal">